*SPEF "ieee 1481-1999"
*DESIGN "gcd"
*DATE "01:59:24 Saturday June 07, 2025"
*VENDOR "The OpenROAD Project"
*PROGRAM "OpenROAD"
*VERSION "v2.0-19576-gec1bf1a13"
*DESIGN_FLOW "NAME_SCOPE LOCAL" "PIN_CAP NONE"
*DIVIDER /
*DELIMITER :
*BUS_DELIMITER []
*T_UNIT 1 NS
*C_UNIT 1 PF
*R_UNIT 1 OHM
*L_UNIT 1 HENRY

*NAME_MAP
*1 clk
*2 req_msg[0]
*3 req_msg[10]
*4 req_msg[11]
*5 req_msg[12]
*6 req_msg[13]
*7 req_msg[14]
*8 req_msg[15]
*9 req_msg[16]
*10 req_msg[17]
*11 req_msg[18]
*12 req_msg[19]
*13 req_msg[1]
*14 req_msg[20]
*15 req_msg[21]
*16 req_msg[22]
*17 req_msg[23]
*18 req_msg[24]
*19 req_msg[25]
*20 req_msg[26]
*21 req_msg[27]
*22 req_msg[28]
*23 req_msg[29]
*24 req_msg[2]
*25 req_msg[30]
*26 req_msg[31]
*27 req_msg[3]
*28 req_msg[4]
*29 req_msg[5]
*30 req_msg[6]
*31 req_msg[7]
*32 req_msg[8]
*33 req_msg[9]
*34 net36
*35 req_val
*36 reset
*37 net37
*38 net38
*39 net39
*40 net40
*41 net41
*42 net42
*43 net43
*44 net44
*45 net45
*46 net46
*47 net47
*48 net48
*49 net49
*50 net50
*51 net51
*52 net52
*53 resp_rdy
*54 net53
*57 _000_
*58 _001_
*59 _002_
*60 _003_
*61 _004_
*62 _005_
*63 _006_
*64 _007_
*65 _008_
*66 _009_
*67 _010_
*68 _011_
*69 _012_
*70 _013_
*71 _014_
*72 _015_
*73 _016_
*74 _017_
*75 _018_
*76 _019_
*77 _020_
*78 _021_
*79 _022_
*80 _023_
*81 _024_
*82 _025_
*83 _026_
*84 _027_
*85 _028_
*86 _029_
*87 _030_
*88 _031_
*89 _032_
*90 _033_
*91 _034_
*92 _035_
*93 _036_
*94 _037_
*95 _038_
*96 _039_
*97 _040_
*98 _041_
*99 _042_
*100 _043_
*101 _044_
*102 _045_
*103 _046_
*104 _047_
*105 _048_
*106 _049_
*107 _050_
*108 _051_
*109 _052_
*110 _053_
*111 _054_
*112 _055_
*113 _056_
*114 _057_
*115 _058_
*116 _059_
*117 _060_
*118 _061_
*119 _062_
*120 _063_
*121 _064_
*122 _065_
*123 _066_
*124 _067_
*125 _068_
*126 _069_
*127 _070_
*128 _071_
*129 _072_
*130 _073_
*131 _074_
*132 _075_
*133 _076_
*134 _077_
*135 _078_
*136 _079_
*137 _080_
*138 _081_
*139 _082_
*140 _083_
*141 _084_
*142 _085_
*143 _086_
*144 _087_
*145 _088_
*146 _089_
*147 _090_
*148 _091_
*149 _092_
*150 _093_
*151 _094_
*152 _095_
*153 _096_
*154 _097_
*155 _098_
*156 _099_
*157 _100_
*158 _101_
*159 _102_
*160 _103_
*161 _104_
*162 _105_
*163 _106_
*164 _107_
*165 _108_
*166 _109_
*167 _110_
*168 _111_
*169 _112_
*170 _113_
*171 _114_
*172 _115_
*173 _116_
*174 _117_
*175 _118_
*176 _119_
*177 _120_
*178 _121_
*179 _122_
*180 _123_
*181 _124_
*182 _125_
*183 _126_
*184 _127_
*185 _128_
*186 _129_
*187 _130_
*188 _131_
*189 _132_
*190 _133_
*191 _134_
*192 _135_
*193 _136_
*194 _137_
*195 _138_
*196 _139_
*197 _140_
*198 _141_
*199 _142_
*200 _143_
*201 _144_
*202 _145_
*203 _146_
*204 _147_
*205 _148_
*206 _149_
*207 _150_
*208 _151_
*209 _152_
*210 _153_
*211 _154_
*212 _155_
*213 _156_
*214 _157_
*215 _158_
*216 _159_
*217 _160_
*218 _161_
*219 _162_
*220 _163_
*221 _164_
*222 _165_
*223 _166_
*224 _167_
*225 _168_
*226 _169_
*227 _170_
*228 _171_
*229 _172_
*230 _173_
*231 _174_
*232 _175_
*233 _176_
*234 _177_
*235 _178_
*236 _179_
*237 _180_
*238 _181_
*239 _182_
*240 _183_
*241 _184_
*242 _185_
*243 _186_
*244 _187_
*245 _188_
*246 _189_
*247 _190_
*248 _191_
*249 _192_
*250 _193_
*251 _194_
*252 _195_
*253 _196_
*254 _197_
*255 _198_
*256 _199_
*257 _200_
*258 _201_
*259 _202_
*260 _203_
*261 _204_
*262 _205_
*263 _206_
*264 _207_
*265 _208_
*266 _209_
*267 _210_
*268 _211_
*269 _212_
*270 _213_
*271 _214_
*272 _215_
*273 _216_
*274 _217_
*275 _218_
*276 _219_
*277 _220_
*278 _221_
*279 _222_
*280 _223_
*281 _224_
*282 _225_
*283 _226_
*284 _227_
*285 _228_
*286 _229_
*287 _230_
*288 _231_
*289 _232_
*290 _233_
*291 _234_
*292 _235_
*293 _236_
*294 _237_
*295 _238_
*296 _239_
*297 _240_
*298 _241_
*299 _242_
*300 _243_
*301 _244_
*302 _245_
*303 _246_
*304 _247_
*305 _248_
*306 _249_
*307 _250_
*308 _251_
*309 _252_
*310 _253_
*311 _254_
*312 _255_
*313 _256_
*314 _257_
*315 _258_
*316 _259_
*317 _260_
*318 _261_
*319 _262_
*320 _263_
*321 _264_
*322 _265_
*323 _266_
*324 _267_
*325 _268_
*326 _269_
*327 _270_
*328 _271_
*329 _272_
*330 _273_
*331 _274_
*332 _275_
*333 _276_
*334 _277_
*335 _278_
*336 _279_
*337 _280_
*338 _281_
*339 _282_
*340 _283_
*341 _284_
*342 _285_
*343 _286_
*344 _287_
*345 _288_
*346 _289_
*347 _290_
*348 _291_
*349 _292_
*350 _293_
*351 _294_
*352 _295_
*353 _296_
*354 dpath\.a_lt_b\$in0\[10\]
*355 dpath\.a_lt_b\$in0\[11\]
*356 dpath\.a_lt_b\$in0\[12\]
*357 dpath\.a_lt_b\$in0\[13\]
*358 dpath\.a_lt_b\$in0\[14\]
*359 dpath\.a_lt_b\$in0\[15\]
*360 dpath\.a_lt_b\$in0\[1\]
*361 dpath\.a_lt_b\$in0\[2\]
*362 dpath\.a_lt_b\$in0\[3\]
*363 dpath\.a_lt_b\$in0\[4\]
*364 dpath\.a_lt_b\$in0\[5\]
*365 dpath\.a_lt_b\$in0\[6\]
*366 dpath\.a_lt_b\$in0\[7\]
*367 dpath\.a_lt_b\$in0\[8\]
*368 dpath\.a_lt_b\$in0\[9\]
*369 dpath\.a_lt_b\$in1\[0\]
*370 dpath\.a_lt_b\$in1\[1\]
*371 net1
*372 net2
*373 net3
*374 net4
*375 net5
*376 net6
*377 net7
*378 net8
*379 net9
*380 net10
*381 net11
*382 net12
*383 net13
*384 net14
*385 net15
*386 net16
*387 net17
*388 net18
*389 net19
*390 net20
*391 net21
*392 net22
*393 net23
*394 net24
*395 net25
*396 net26
*397 net27
*398 net28
*399 net29
*400 net30
*401 net31
*402 net32
*403 net33
*404 net34
*405 net35
*406 req_rdy
*407 resp_msg[0]
*408 resp_msg[10]
*409 resp_msg[11]
*410 resp_msg[12]
*411 resp_msg[13]
*412 resp_msg[14]
*413 resp_msg[15]
*414 resp_msg[1]
*415 resp_msg[2]
*416 resp_msg[3]
*417 resp_msg[4]
*418 resp_msg[5]
*419 resp_msg[6]
*420 resp_msg[7]
*421 resp_msg[8]
*422 resp_msg[9]
*423 resp_val
*424 clknet_0_clk
*425 clknet_2_0__leaf_clk
*426 clknet_2_1__leaf_clk
*427 clknet_2_2__leaf_clk
*428 clknet_2_3__leaf_clk
*429 net54
*430 net55
*431 net56
*432 net57
*433 net58
*434 net59
*435 net60
*436 net61
*437 net62
*438 net63
*439 net64
*440 net65
*441 net66
*442 net67
*443 net68
*444 net69
*445 net70
*446 net71
*447 net72
*448 net73
*449 net74
*450 net75
*451 net76
*452 net77
*453 net78
*454 net79
*455 net80
*456 net81
*457 net82
*458 net83
*459 net84
*460 net85
*461 net86
*462 net87
*463 net88
*464 net89
*465 net92
*466 net93
*467 net94
*468 net95
*469 net96
*470 net97
*471 net98
*472 net99
*473 net100
*474 net102
*475 net103
*476 net104
*477 net106
*478 net90
*479 net91
*480 net101
*481 net105
*482 net107
*483 net108
*484 net109
*485 _297_
*486 _298_
*487 _299_
*488 _300_
*489 _301_
*490 _302_
*491 _303_
*492 _304_
*493 _305_
*494 _306_
*495 _307_
*496 _308_
*497 _309_
*498 _310_
*499 _311_
*500 _312_
*501 _313_
*502 _314_
*503 _315_
*504 _316_
*505 _317_
*506 _318_
*507 _319_
*508 _320_
*509 _321_
*510 _322_
*511 _323_
*512 _324_
*513 _325_
*514 _326_
*515 _327_
*516 _328_
*517 _329_
*518 _330_
*519 _331_
*520 _332_
*521 _333_
*522 _334_
*523 _335_
*524 _336_
*525 _337_
*526 _338_
*527 _339_
*528 _340_
*529 _341_
*530 _342_
*531 _343_
*532 _344_
*533 _345_
*534 _346_
*535 _347_
*536 _348_
*537 _349_
*538 _350_
*539 _351_
*540 _352_
*541 _353_
*542 _354_
*543 _355_
*544 _356_
*545 _357_
*546 _358_
*547 _359_
*548 _360_
*549 _361_
*550 _362_
*551 _363_
*552 _364_
*553 _365_
*554 _366_
*555 _367_
*556 _368_
*557 _369_
*558 _370_
*559 _371_
*560 _372_
*561 _373_
*562 _374_
*563 _375_
*564 _376_
*565 _377_
*566 _378_
*567 _379_
*568 _380_
*569 _381_
*570 _382_
*571 _383_
*572 _384_
*573 _385_
*574 _386_
*575 _387_
*576 _388_
*577 _389_
*578 _390_
*579 _391_
*580 _392_
*581 _393_
*582 _394_
*583 _395_
*584 _396_
*585 _397_
*586 _398_
*587 _399_
*588 _400_
*589 _401_
*590 _402_
*591 _403_
*592 _404_
*593 _405_
*594 _406_
*595 _407_
*596 _408_
*597 _409_
*598 _410_
*599 _411_
*600 _412_
*601 _413_
*602 _414_
*603 _415_
*604 _416_
*605 _417_
*606 _418_
*607 _419_
*608 _420_
*609 _421_
*610 _422_
*611 _423_
*612 _424_
*613 _425_
*614 _426_
*615 _427_
*616 _428_
*617 _429_
*618 _430_
*619 _431_
*620 _432_
*621 _433_
*622 _434_
*623 _435_
*624 _436_
*625 _437_
*626 _438_
*627 _439_
*628 _440_
*629 _441_
*630 _442_
*631 _443_
*632 _444_
*633 _445_
*634 _446_
*635 _447_
*636 _448_
*637 _449_
*638 _450_
*639 _451_
*640 _452_
*641 _453_
*642 _454_
*643 _455_
*644 _456_
*645 _457_
*646 _458_
*647 _459_
*648 _460_
*649 _461_
*650 _462_
*651 _463_
*652 _464_
*653 _465_
*654 _466_
*655 _467_
*656 _468_
*657 _469_
*658 _470_
*659 _471_
*660 _472_
*661 _473_
*662 _474_
*663 _475_
*664 _476_
*665 _477_
*666 _478_
*667 _479_
*668 _480_
*669 _481_
*670 _482_
*671 _483_
*672 _484_
*673 _485_
*674 _486_
*675 _487_
*676 _488_
*677 _489_
*678 _490_
*679 _491_
*680 _492_
*681 _493_
*682 _494_
*683 _495_
*684 _496_
*685 _497_
*686 _498_
*687 _499_
*688 _500_
*689 _501_
*690 _502_
*691 _503_
*692 _504_
*693 _505_
*694 _506_
*695 _507_
*696 _508_
*697 _509_
*698 _510_
*699 _511_
*700 _512_
*701 _513_
*702 _514_
*703 _515_
*704 _516_
*705 _517_
*706 _518_
*707 _519_
*708 _520_
*709 _521_
*710 _522_
*711 _523_
*712 _524_
*713 _525_
*714 _526_
*715 _527_
*716 _528_
*717 _529_
*718 _530_
*719 _531_
*720 _532_
*721 _533_
*722 _534_
*723 _535_
*724 _536_
*725 _537_
*726 _538_
*727 _539_
*728 _540_
*729 _541_
*730 _542_
*731 _543_
*732 _544_
*733 _545_
*734 _546_
*735 _547_
*736 _548_
*737 _549_
*738 _550_
*739 _551_
*740 _552_
*741 _553_
*742 _554_
*743 _555_
*744 _556_
*745 _557_
*746 _558_
*747 _559_
*748 _560_
*749 _561_
*750 _562_
*751 _563_
*752 _564_
*753 _565_
*754 _566_
*755 _567_
*756 _568_
*757 _569_
*758 _570_
*759 _571_
*760 _572_
*761 _573_
*762 _574_
*763 _575_
*764 _576_
*765 ctrl\.state\.out\[0\]\$_DFF_P_
*766 ctrl\.state\.out\[1\]\$_DFF_P_
*767 ctrl\.state\.out\[2\]\$_DFF_P_
*768 dpath\.a_reg\.out\[0\]\$_DFFE_PP_
*769 dpath\.a_reg\.out\[10\]\$_DFFE_PP_
*770 dpath\.a_reg\.out\[11\]\$_DFFE_PP_
*771 dpath\.a_reg\.out\[12\]\$_DFFE_PP_
*772 dpath\.a_reg\.out\[13\]\$_DFFE_PP_
*773 dpath\.a_reg\.out\[14\]\$_DFFE_PP_
*774 dpath\.a_reg\.out\[15\]\$_DFFE_PP_
*775 dpath\.a_reg\.out\[1\]\$_DFFE_PP_
*776 dpath\.a_reg\.out\[2\]\$_DFFE_PP_
*777 dpath\.a_reg\.out\[3\]\$_DFFE_PP_
*778 dpath\.a_reg\.out\[4\]\$_DFFE_PP_
*779 dpath\.a_reg\.out\[5\]\$_DFFE_PP_
*780 dpath\.a_reg\.out\[6\]\$_DFFE_PP_
*781 dpath\.a_reg\.out\[7\]\$_DFFE_PP_
*782 dpath\.a_reg\.out\[8\]\$_DFFE_PP_
*783 dpath\.a_reg\.out\[9\]\$_DFFE_PP_
*784 dpath\.b_reg\.out\[0\]\$_DFFE_PP_
*785 dpath\.b_reg\.out\[10\]\$_DFFE_PP_
*786 dpath\.b_reg\.out\[11\]\$_DFFE_PP_
*787 dpath\.b_reg\.out\[12\]\$_DFFE_PP_
*788 dpath\.b_reg\.out\[13\]\$_DFFE_PP_
*789 dpath\.b_reg\.out\[14\]\$_DFFE_PP_
*790 dpath\.b_reg\.out\[15\]\$_DFFE_PP_
*791 dpath\.b_reg\.out\[1\]\$_DFFE_PP_
*792 dpath\.b_reg\.out\[2\]\$_DFFE_PP_
*793 dpath\.b_reg\.out\[3\]\$_DFFE_PP_
*794 dpath\.b_reg\.out\[4\]\$_DFFE_PP_
*795 dpath\.b_reg\.out\[5\]\$_DFFE_PP_
*796 dpath\.b_reg\.out\[6\]\$_DFFE_PP_
*797 dpath\.b_reg\.out\[7\]\$_DFFE_PP_
*798 dpath\.b_reg\.out\[8\]\$_DFFE_PP_
*799 dpath\.b_reg\.out\[9\]\$_DFFE_PP_
*800 PHY_EDGE_ROW_0_Left_52
*801 PHY_EDGE_ROW_0_Right_0
*802 PHY_EDGE_ROW_10_Left_62
*803 PHY_EDGE_ROW_10_Right_10
*804 PHY_EDGE_ROW_11_Left_63
*805 PHY_EDGE_ROW_11_Right_11
*806 PHY_EDGE_ROW_12_Left_64
*807 PHY_EDGE_ROW_12_Right_12
*808 PHY_EDGE_ROW_13_Left_65
*809 PHY_EDGE_ROW_13_Right_13
*810 PHY_EDGE_ROW_14_Left_66
*811 PHY_EDGE_ROW_14_Right_14
*812 PHY_EDGE_ROW_15_Left_67
*813 PHY_EDGE_ROW_15_Right_15
*814 PHY_EDGE_ROW_16_Left_68
*815 PHY_EDGE_ROW_16_Right_16
*816 PHY_EDGE_ROW_17_Left_69
*817 PHY_EDGE_ROW_17_Right_17
*818 PHY_EDGE_ROW_18_Left_70
*819 PHY_EDGE_ROW_18_Right_18
*820 PHY_EDGE_ROW_19_Left_71
*821 PHY_EDGE_ROW_19_Right_19
*822 PHY_EDGE_ROW_1_Left_53
*823 PHY_EDGE_ROW_1_Right_1
*824 PHY_EDGE_ROW_20_Left_72
*825 PHY_EDGE_ROW_20_Right_20
*826 PHY_EDGE_ROW_21_Left_73
*827 PHY_EDGE_ROW_21_Right_21
*828 PHY_EDGE_ROW_22_Left_74
*829 PHY_EDGE_ROW_22_Right_22
*830 PHY_EDGE_ROW_23_Left_75
*831 PHY_EDGE_ROW_23_Right_23
*832 PHY_EDGE_ROW_24_Left_76
*833 PHY_EDGE_ROW_24_Right_24
*834 PHY_EDGE_ROW_25_Left_77
*835 PHY_EDGE_ROW_25_Right_25
*836 PHY_EDGE_ROW_26_Left_78
*837 PHY_EDGE_ROW_26_Right_26
*838 PHY_EDGE_ROW_27_Left_79
*839 PHY_EDGE_ROW_27_Right_27
*840 PHY_EDGE_ROW_28_Left_80
*841 PHY_EDGE_ROW_28_Right_28
*842 PHY_EDGE_ROW_29_Left_81
*843 PHY_EDGE_ROW_29_Right_29
*844 PHY_EDGE_ROW_2_Left_54
*845 PHY_EDGE_ROW_2_Right_2
*846 PHY_EDGE_ROW_30_Left_82
*847 PHY_EDGE_ROW_30_Right_30
*848 PHY_EDGE_ROW_31_Left_83
*849 PHY_EDGE_ROW_31_Right_31
*850 PHY_EDGE_ROW_32_Left_84
*851 PHY_EDGE_ROW_32_Right_32
*852 PHY_EDGE_ROW_33_Left_85
*853 PHY_EDGE_ROW_33_Right_33
*854 PHY_EDGE_ROW_34_Left_86
*855 PHY_EDGE_ROW_34_Right_34
*856 PHY_EDGE_ROW_35_Left_87
*857 PHY_EDGE_ROW_35_Right_35
*858 PHY_EDGE_ROW_36_Left_88
*859 PHY_EDGE_ROW_36_Right_36
*860 PHY_EDGE_ROW_37_Left_89
*861 PHY_EDGE_ROW_37_Right_37
*862 PHY_EDGE_ROW_38_Left_90
*863 PHY_EDGE_ROW_38_Right_38
*864 PHY_EDGE_ROW_39_Left_91
*865 PHY_EDGE_ROW_39_Right_39
*866 PHY_EDGE_ROW_3_Left_55
*867 PHY_EDGE_ROW_3_Right_3
*868 PHY_EDGE_ROW_40_Left_92
*869 PHY_EDGE_ROW_40_Right_40
*870 PHY_EDGE_ROW_41_Left_93
*871 PHY_EDGE_ROW_41_Right_41
*872 PHY_EDGE_ROW_42_Left_94
*873 PHY_EDGE_ROW_42_Right_42
*874 PHY_EDGE_ROW_43_Left_95
*875 PHY_EDGE_ROW_43_Right_43
*876 PHY_EDGE_ROW_44_Left_96
*877 PHY_EDGE_ROW_44_Right_44
*878 PHY_EDGE_ROW_45_Left_97
*879 PHY_EDGE_ROW_45_Right_45
*880 PHY_EDGE_ROW_46_Left_98
*881 PHY_EDGE_ROW_46_Right_46
*882 PHY_EDGE_ROW_47_Left_99
*883 PHY_EDGE_ROW_47_Right_47
*884 PHY_EDGE_ROW_48_Left_100
*885 PHY_EDGE_ROW_48_Right_48
*886 PHY_EDGE_ROW_49_Left_101
*887 PHY_EDGE_ROW_49_Right_49
*888 PHY_EDGE_ROW_4_Left_56
*889 PHY_EDGE_ROW_4_Right_4
*890 PHY_EDGE_ROW_50_Left_102
*891 PHY_EDGE_ROW_50_Right_50
*892 PHY_EDGE_ROW_51_Left_103
*893 PHY_EDGE_ROW_51_Right_51
*894 PHY_EDGE_ROW_5_Left_57
*895 PHY_EDGE_ROW_5_Right_5
*896 PHY_EDGE_ROW_6_Left_58
*897 PHY_EDGE_ROW_6_Right_6
*898 PHY_EDGE_ROW_7_Left_59
*899 PHY_EDGE_ROW_7_Right_7
*900 PHY_EDGE_ROW_8_Left_60
*901 PHY_EDGE_ROW_8_Right_8
*902 PHY_EDGE_ROW_9_Left_61
*903 PHY_EDGE_ROW_9_Right_9
*904 input1
*905 input2
*906 input3
*907 input4
*908 input5
*909 input6
*910 input7
*911 input8
*912 input9
*913 input10
*914 input11
*915 input12
*916 input13
*917 input14
*918 input15
*919 input16
*920 input17
*921 input18
*922 input19
*923 input20
*924 input21
*925 input22
*926 input23
*927 input24
*928 input25
*929 input26
*930 input27
*931 input28
*932 input29
*933 input30
*934 input31
*935 input32
*936 input33
*937 input34
*938 input35
*939 output36
*940 output37
*941 output38
*942 output39
*943 output40
*944 output41
*945 output42
*946 output43
*947 output44
*948 output45
*949 output46
*950 output47
*951 output48
*952 output49
*953 output50
*954 output51
*955 output52
*956 output53
*957 clkbuf_0_clk
*958 clkbuf_2_0__f_clk
*959 clkbuf_2_1__f_clk
*960 clkbuf_2_2__f_clk
*961 clkbuf_2_3__f_clk
*962 clkload0
*963 clkload1
*964 clkload2
*965 rebuffer1
*966 rebuffer2
*967 rebuffer3
*968 rebuffer4
*969 rebuffer5
*970 rebuffer6
*971 rebuffer7
*972 rebuffer8
*973 rebuffer9
*974 rebuffer10
*975 rebuffer11
*976 rebuffer12
*977 rebuffer13
*978 rebuffer14
*979 rebuffer15
*980 rebuffer16
*981 rebuffer17
*982 rebuffer18
*983 rebuffer19
*984 rebuffer20
*985 rebuffer21
*986 rebuffer22
*987 rebuffer23
*988 rebuffer24
*989 rebuffer25
*990 rebuffer26
*991 rebuffer27
*992 rebuffer28
*993 rebuffer29
*994 rebuffer30
*995 rebuffer31
*996 rebuffer32
*997 rebuffer33
*998 rebuffer34
*999 rebuffer35
*1000 rebuffer36
*1001 rebuffer39
*1002 rebuffer40
*1003 rebuffer41
*1004 rebuffer42
*1005 rebuffer43
*1006 rebuffer44
*1007 rebuffer45
*1008 rebuffer46
*1009 rebuffer47
*1010 rebuffer49
*1011 rebuffer50
*1012 rebuffer51
*1013 clone53
*1014 rebuffer37
*1015 rebuffer38
*1016 clone39
*1017 rebuffer48
*1018 rebuffer52
*1019 clone54
*1020 clone55
*1021 FILLER_0_2
*1022 FILLER_0_24
*1023 FILLER_0_46
*1024 FILLER_0_68
*1025 FILLER_0_74
*1026 FILLER_0_85
*1027 FILLER_0_99
*1028 FILLER_0_115
*1029 FILLER_0_121
*1030 FILLER_0_123
*1031 FILLER_0_144
*1032 FILLER_0_166
*1033 FILLER_0_188
*1034 FILLER_0_210
*1035 FILLER_0_232
*1036 FILLER_0_254
*1037 FILLER_1_2
*1038 FILLER_1_24
*1039 FILLER_1_46
*1040 FILLER_1_68
*1041 FILLER_1_82
*1042 FILLER_1_88
*1043 FILLER_1_102
*1044 FILLER_1_106
*1045 FILLER_1_112
*1046 FILLER_1_134
*1047 FILLER_1_156
*1048 FILLER_1_166
*1049 FILLER_1_172
*1050 FILLER_1_194
*1051 FILLER_1_216
*1052 FILLER_1_238
*1053 FILLER_1_252
*1054 FILLER_2_2
*1055 FILLER_2_24
*1056 FILLER_2_46
*1057 FILLER_2_68
*1058 FILLER_2_90
*1059 FILLER_2_112
*1060 FILLER_2_134
*1061 FILLER_2_156
*1062 FILLER_2_178
*1063 FILLER_2_200
*1064 FILLER_2_222
*1065 FILLER_2_244
*1066 FILLER_3_2
*1067 FILLER_3_24
*1068 FILLER_3_46
*1069 FILLER_3_68
*1070 FILLER_3_90
*1071 FILLER_3_112
*1072 FILLER_3_134
*1073 FILLER_3_156
*1074 FILLER_3_178
*1075 FILLER_3_200
*1076 FILLER_3_222
*1077 FILLER_3_244
*1078 FILLER_4_2
*1079 FILLER_4_24
*1080 FILLER_4_46
*1081 FILLER_4_68
*1082 FILLER_4_90
*1083 FILLER_4_112
*1084 FILLER_4_134
*1085 FILLER_4_156
*1086 FILLER_4_178
*1087 FILLER_4_200
*1088 FILLER_4_222
*1089 FILLER_4_244
*1090 FILLER_5_2
*1091 FILLER_5_24
*1092 FILLER_5_46
*1093 FILLER_5_68
*1094 FILLER_5_90
*1095 FILLER_5_112
*1096 FILLER_5_134
*1097 FILLER_5_156
*1098 FILLER_5_178
*1099 FILLER_5_200
*1100 FILLER_5_222
*1101 FILLER_5_244
*1102 FILLER_6_2
*1103 FILLER_6_24
*1104 FILLER_6_46
*1105 FILLER_6_68
*1106 FILLER_6_90
*1107 FILLER_6_112
*1108 FILLER_6_134
*1109 FILLER_6_156
*1110 FILLER_6_178
*1111 FILLER_6_200
*1112 FILLER_6_222
*1113 FILLER_6_244
*1114 FILLER_7_2
*1115 FILLER_7_24
*1116 FILLER_7_46
*1117 FILLER_7_68
*1118 FILLER_7_90
*1119 FILLER_7_112
*1120 FILLER_7_134
*1121 FILLER_7_156
*1122 FILLER_7_178
*1123 FILLER_7_200
*1124 FILLER_7_222
*1125 FILLER_7_244
*1126 FILLER_8_2
*1127 FILLER_8_24
*1128 FILLER_8_46
*1129 FILLER_8_68
*1130 FILLER_8_90
*1131 FILLER_8_112
*1132 FILLER_8_134
*1133 FILLER_8_156
*1134 FILLER_8_178
*1135 FILLER_8_200
*1136 FILLER_8_222
*1137 FILLER_8_244
*1138 FILLER_9_2
*1139 FILLER_9_24
*1140 FILLER_9_46
*1141 FILLER_9_68
*1142 FILLER_9_90
*1143 FILLER_9_112
*1144 FILLER_9_134
*1145 FILLER_9_156
*1146 FILLER_9_178
*1147 FILLER_9_200
*1148 FILLER_9_222
*1149 FILLER_9_244
*1150 FILLER_10_2
*1151 FILLER_10_24
*1152 FILLER_10_46
*1153 FILLER_10_68
*1154 FILLER_10_90
*1155 FILLER_10_112
*1156 FILLER_10_134
*1157 FILLER_10_156
*1158 FILLER_10_178
*1159 FILLER_10_200
*1160 FILLER_10_222
*1161 FILLER_10_244
*1162 FILLER_11_2
*1163 FILLER_11_16
*1164 FILLER_11_25
*1165 FILLER_11_47
*1166 FILLER_11_69
*1167 FILLER_11_75
*1168 FILLER_11_82
*1169 FILLER_11_92
*1170 FILLER_11_114
*1171 FILLER_11_118
*1172 FILLER_11_125
*1173 FILLER_11_147
*1174 FILLER_11_169
*1175 FILLER_11_191
*1176 FILLER_11_213
*1177 FILLER_11_235
*1178 FILLER_11_257
*1179 FILLER_12_2
*1180 FILLER_12_24
*1181 FILLER_12_46
*1182 FILLER_12_68
*1183 FILLER_12_70
*1184 FILLER_12_92
*1185 FILLER_12_98
*1186 FILLER_12_112
*1187 FILLER_12_122
*1188 FILLER_12_124
*1189 FILLER_12_131
*1190 FILLER_12_153
*1191 FILLER_12_175
*1192 FILLER_12_197
*1193 FILLER_12_219
*1194 FILLER_12_241
*1195 FILLER_12_255
*1196 FILLER_12_257
*1197 FILLER_13_2
*1198 FILLER_13_24
*1199 FILLER_13_46
*1200 FILLER_13_68
*1201 FILLER_13_74
*1202 FILLER_13_90
*1203 FILLER_13_96
*1204 FILLER_13_106
*1205 FILLER_13_120
*1206 FILLER_13_129
*1207 FILLER_13_151
*1208 FILLER_13_173
*1209 FILLER_13_195
*1210 FILLER_13_217
*1211 FILLER_13_239
*1212 FILLER_13_253
*1213 FILLER_13_257
*1214 FILLER_14_2
*1215 FILLER_14_24
*1216 FILLER_14_30
*1217 FILLER_14_32
*1218 FILLER_14_61
*1219 FILLER_14_83
*1220 FILLER_14_105
*1221 FILLER_14_127
*1222 FILLER_14_149
*1223 FILLER_14_172
*1224 FILLER_14_194
*1225 FILLER_14_216
*1226 FILLER_14_238
*1227 FILLER_14_252
*1228 FILLER_15_2
*1229 FILLER_15_24
*1230 FILLER_15_34
*1231 FILLER_15_77
*1232 FILLER_15_83
*1233 FILLER_15_90
*1234 FILLER_15_100
*1235 FILLER_15_108
*1236 FILLER_15_128
*1237 FILLER_15_142
*1238 FILLER_15_157
*1239 FILLER_15_179
*1240 FILLER_15_201
*1241 FILLER_15_223
*1242 FILLER_15_245
*1243 FILLER_15_255
*1244 FILLER_15_257
*1245 FILLER_16_2
*1246 FILLER_16_16
*1247 FILLER_16_22
*1248 FILLER_16_28
*1249 FILLER_16_50
*1250 FILLER_16_58
*1251 FILLER_16_80
*1252 FILLER_16_95
*1253 FILLER_16_109
*1254 FILLER_16_115
*1255 FILLER_16_129
*1256 FILLER_16_139
*1257 FILLER_16_151
*1258 FILLER_16_203
*1259 FILLER_16_225
*1260 FILLER_16_247
*1261 FILLER_16_257
*1262 FILLER_17_2
*1263 FILLER_17_24
*1264 FILLER_17_46
*1265 FILLER_17_50
*1266 FILLER_17_61
*1267 FILLER_17_67
*1268 FILLER_17_90
*1269 FILLER_17_116
*1270 FILLER_17_140
*1271 FILLER_17_146
*1272 FILLER_17_157
*1273 FILLER_17_179
*1274 FILLER_17_189
*1275 FILLER_17_205
*1276 FILLER_17_217
*1277 FILLER_17_231
*1278 FILLER_17_238
*1279 FILLER_17_252
*1280 FILLER_18_2
*1281 FILLER_18_24
*1282 FILLER_18_46
*1283 FILLER_18_58
*1284 FILLER_18_72
*1285 FILLER_18_74
*1286 FILLER_18_81
*1287 FILLER_18_91
*1288 FILLER_18_93
*1289 FILLER_18_99
*1290 FILLER_18_105
*1291 FILLER_18_112
*1292 FILLER_18_134
*1293 FILLER_18_144
*1294 FILLER_18_150
*1295 FILLER_18_157
*1296 FILLER_18_179
*1297 FILLER_18_191
*1298 FILLER_18_201
*1299 FILLER_18_205
*1300 FILLER_18_228
*1301 FILLER_18_250
*1302 FILLER_18_256
*1303 FILLER_19_2
*1304 FILLER_19_24
*1305 FILLER_19_60
*1306 FILLER_19_65
*1307 FILLER_19_71
*1308 FILLER_19_73
*1309 FILLER_19_90
*1310 FILLER_19_96
*1311 FILLER_19_98
*1312 FILLER_19_115
*1313 FILLER_19_121
*1314 FILLER_19_138
*1315 FILLER_19_148
*1316 FILLER_19_150
*1317 FILLER_19_160
*1318 FILLER_19_167
*1319 FILLER_19_189
*1320 FILLER_19_203
*1321 FILLER_19_210
*1322 FILLER_19_232
*1323 FILLER_19_254
*1324 FILLER_20_2
*1325 FILLER_20_24
*1326 FILLER_20_38
*1327 FILLER_20_60
*1328 FILLER_20_74
*1329 FILLER_20_84
*1330 FILLER_20_106
*1331 FILLER_20_120
*1332 FILLER_20_124
*1333 FILLER_20_131
*1334 FILLER_20_153
*1335 FILLER_20_162
*1336 FILLER_20_166
*1337 FILLER_20_179
*1338 FILLER_20_185
*1339 FILLER_20_187
*1340 FILLER_20_197
*1341 FILLER_20_203
*1342 FILLER_20_218
*1343 FILLER_20_240
*1344 FILLER_20_254
*1345 FILLER_21_8
*1346 FILLER_21_15
*1347 FILLER_21_22
*1348 FILLER_21_37
*1349 FILLER_21_41
*1350 FILLER_21_58
*1351 FILLER_21_64
*1352 FILLER_21_72
*1353 FILLER_21_78
*1354 FILLER_21_118
*1355 FILLER_21_131
*1356 FILLER_21_137
*1357 FILLER_21_139
*1358 FILLER_21_148
*1359 FILLER_21_161
*1360 FILLER_21_183
*1361 FILLER_21_199
*1362 FILLER_21_209
*1363 FILLER_21_231
*1364 FILLER_21_253
*1365 FILLER_21_257
*1366 FILLER_22_2
*1367 FILLER_22_29
*1368 FILLER_22_31
*1369 FILLER_22_38
*1370 FILLER_22_60
*1371 FILLER_22_75
*1372 FILLER_22_89
*1373 FILLER_22_91
*1374 FILLER_22_99
*1375 FILLER_22_101
*1376 FILLER_22_116
*1377 FILLER_22_118
*1378 FILLER_22_137
*1379 FILLER_22_143
*1380 FILLER_22_158
*1381 FILLER_22_176
*1382 FILLER_22_192
*1383 FILLER_22_219
*1384 FILLER_22_234
*1385 FILLER_22_256
*1386 FILLER_23_2
*1387 FILLER_23_4
*1388 FILLER_23_10
*1389 FILLER_23_24
*1390 FILLER_23_28
*1391 FILLER_23_35
*1392 FILLER_23_57
*1393 FILLER_23_71
*1394 FILLER_23_73
*1395 FILLER_23_80
*1396 FILLER_23_117
*1397 FILLER_23_139
*1398 FILLER_23_145
*1399 FILLER_23_159
*1400 FILLER_23_181
*1401 FILLER_23_185
*1402 FILLER_23_194
*1403 FILLER_23_224
*1404 FILLER_23_239
*1405 FILLER_23_245
*1406 FILLER_23_251
*1407 FILLER_23_257
*1408 FILLER_24_2
*1409 FILLER_24_21
*1410 FILLER_24_35
*1411 FILLER_24_49
*1412 FILLER_24_55
*1413 FILLER_24_57
*1414 FILLER_24_75
*1415 FILLER_24_81
*1416 FILLER_24_83
*1417 FILLER_24_98
*1418 FILLER_24_104
*1419 FILLER_24_112
*1420 FILLER_24_134
*1421 FILLER_24_140
*1422 FILLER_24_157
*1423 FILLER_24_161
*1424 FILLER_24_168
*1425 FILLER_24_176
*1426 FILLER_24_180
*1427 FILLER_24_197
*1428 FILLER_24_205
*1429 FILLER_24_227
*1430 FILLER_24_249
*1431 FILLER_24_255
*1432 FILLER_24_257
*1433 FILLER_25_2
*1434 FILLER_25_31
*1435 FILLER_25_37
*1436 FILLER_25_48
*1437 FILLER_25_52
*1438 FILLER_25_92
*1439 FILLER_25_99
*1440 FILLER_25_109
*1441 FILLER_25_117
*1442 FILLER_25_119
*1443 FILLER_25_126
*1444 FILLER_25_140
*1445 FILLER_25_144
*1446 FILLER_25_161
*1447 FILLER_25_163
*1448 FILLER_25_187
*1449 FILLER_25_214
*1450 FILLER_25_236
*1451 FILLER_26_2
*1452 FILLER_26_17
*1453 FILLER_26_39
*1454 FILLER_26_43
*1455 FILLER_26_53
*1456 FILLER_26_87
*1457 FILLER_26_93
*1458 FILLER_26_105
*1459 FILLER_26_111
*1460 FILLER_26_113
*1461 FILLER_26_126
*1462 FILLER_26_148
*1463 FILLER_26_158
*1464 FILLER_26_166
*1465 FILLER_26_196
*1466 FILLER_26_211
*1467 FILLER_26_233
*1468 FILLER_26_255
*1469 FILLER_26_257
*1470 FILLER_27_2
*1471 FILLER_27_24
*1472 FILLER_27_31
*1473 FILLER_27_53
*1474 FILLER_27_67
*1475 FILLER_27_102
*1476 FILLER_27_112
*1477 FILLER_27_114
*1478 FILLER_27_121
*1479 FILLER_27_133
*1480 FILLER_27_152
*1481 FILLER_27_166
*1482 FILLER_27_172
*1483 FILLER_27_188
*1484 FILLER_27_207
*1485 FILLER_27_229
*1486 FILLER_27_237
*1487 FILLER_27_251
*1488 FILLER_27_257
*1489 FILLER_28_2
*1490 FILLER_28_16
*1491 FILLER_28_25
*1492 FILLER_28_35
*1493 FILLER_28_43
*1494 FILLER_28_65
*1495 FILLER_28_75
*1496 FILLER_28_77
*1497 FILLER_28_83
*1498 FILLER_28_105
*1499 FILLER_28_123
*1500 FILLER_28_130
*1501 FILLER_28_138
*1502 FILLER_28_147
*1503 FILLER_28_155
*1504 FILLER_28_169
*1505 FILLER_28_176
*1506 FILLER_28_180
*1507 FILLER_28_187
*1508 FILLER_28_209
*1509 FILLER_28_236
*1510 FILLER_29_2
*1511 FILLER_29_28
*1512 FILLER_29_45
*1513 FILLER_29_52
*1514 FILLER_29_54
*1515 FILLER_29_68
*1516 FILLER_29_74
*1517 FILLER_29_81
*1518 FILLER_29_103
*1519 FILLER_29_117
*1520 FILLER_29_140
*1521 FILLER_29_148
*1522 FILLER_29_162
*1523 FILLER_29_177
*1524 FILLER_29_187
*1525 FILLER_29_200
*1526 FILLER_29_222
*1527 FILLER_29_244
*1528 FILLER_30_2
*1529 FILLER_30_4
*1530 FILLER_30_37
*1531 FILLER_30_39
*1532 FILLER_30_54
*1533 FILLER_30_71
*1534 FILLER_30_93
*1535 FILLER_30_115
*1536 FILLER_30_137
*1537 FILLER_30_143
*1538 FILLER_30_150
*1539 FILLER_30_164
*1540 FILLER_30_166
*1541 FILLER_30_189
*1542 FILLER_30_193
*1543 FILLER_30_208
*1544 FILLER_30_230
*1545 FILLER_30_236
*1546 FILLER_31_2
*1547 FILLER_31_16
*1548 FILLER_31_22
*1549 FILLER_31_34
*1550 FILLER_31_43
*1551 FILLER_31_47
*1552 FILLER_31_77
*1553 FILLER_31_99
*1554 FILLER_31_105
*1555 FILLER_31_120
*1556 FILLER_31_124
*1557 FILLER_31_134
*1558 FILLER_31_156
*1559 FILLER_31_176
*1560 FILLER_31_190
*1561 FILLER_31_192
*1562 FILLER_31_211
*1563 FILLER_31_233
*1564 FILLER_31_255
*1565 FILLER_31_257
*1566 FILLER_32_2
*1567 FILLER_32_12
*1568 FILLER_32_19
*1569 FILLER_32_41
*1570 FILLER_32_47
*1571 FILLER_32_54
*1572 FILLER_32_68
*1573 FILLER_32_78
*1574 FILLER_32_100
*1575 FILLER_32_110
*1576 FILLER_32_160
*1577 FILLER_32_176
*1578 FILLER_32_190
*1579 FILLER_32_196
*1580 FILLER_32_218
*1581 FILLER_32_228
*1582 FILLER_32_236
*1583 FILLER_33_2
*1584 FILLER_33_8
*1585 FILLER_33_10
*1586 FILLER_33_16
*1587 FILLER_33_22
*1588 FILLER_33_32
*1589 FILLER_33_54
*1590 FILLER_33_63
*1591 FILLER_33_65
*1592 FILLER_33_72
*1593 FILLER_33_86
*1594 FILLER_33_125
*1595 FILLER_33_137
*1596 FILLER_33_159
*1597 FILLER_33_161
*1598 FILLER_33_176
*1599 FILLER_33_186
*1600 FILLER_33_196
*1601 FILLER_33_201
*1602 FILLER_33_203
*1603 FILLER_33_210
*1604 FILLER_33_218
*1605 FILLER_33_240
*1606 FILLER_33_254
*1607 FILLER_34_2
*1608 FILLER_34_12
*1609 FILLER_34_35
*1610 FILLER_34_49
*1611 FILLER_34_55
*1612 FILLER_34_74
*1613 FILLER_34_88
*1614 FILLER_34_93
*1615 FILLER_34_104
*1616 FILLER_34_118
*1617 FILLER_34_120
*1618 FILLER_34_131
*1619 FILLER_34_135
*1620 FILLER_34_142
*1621 FILLER_34_148
*1622 FILLER_34_150
*1623 FILLER_34_159
*1624 FILLER_34_173
*1625 FILLER_34_177
*1626 FILLER_34_221
*1627 FILLER_34_227
*1628 FILLER_34_229
*1629 FILLER_34_235
*1630 FILLER_34_257
*1631 FILLER_35_2
*1632 FILLER_35_24
*1633 FILLER_35_26
*1634 FILLER_35_35
*1635 FILLER_35_37
*1636 FILLER_35_81
*1637 FILLER_35_103
*1638 FILLER_35_125
*1639 FILLER_35_133
*1640 FILLER_35_155
*1641 FILLER_35_165
*1642 FILLER_35_169
*1643 FILLER_35_183
*1644 FILLER_35_191
*1645 FILLER_35_195
*1646 FILLER_35_210
*1647 FILLER_35_216
*1648 FILLER_35_224
*1649 FILLER_35_230
*1650 FILLER_35_236
*1651 FILLER_36_2
*1652 FILLER_36_30
*1653 FILLER_36_47
*1654 FILLER_36_54
*1655 FILLER_36_72
*1656 FILLER_36_76
*1657 FILLER_36_85
*1658 FILLER_36_107
*1659 FILLER_36_121
*1660 FILLER_36_135
*1661 FILLER_36_157
*1662 FILLER_36_188
*1663 FILLER_36_210
*1664 FILLER_36_232
*1665 FILLER_36_254
*1666 FILLER_37_2
*1667 FILLER_37_8
*1668 FILLER_37_10
*1669 FILLER_37_16
*1670 FILLER_37_27
*1671 FILLER_37_49
*1672 FILLER_37_51
*1673 FILLER_37_77
*1674 FILLER_37_99
*1675 FILLER_37_105
*1676 FILLER_37_115
*1677 FILLER_37_126
*1678 FILLER_37_140
*1679 FILLER_37_158
*1680 FILLER_37_172
*1681 FILLER_37_176
*1682 FILLER_37_183
*1683 FILLER_37_187
*1684 FILLER_37_194
*1685 FILLER_37_216
*1686 FILLER_37_238
*1687 FILLER_37_252
*1688 FILLER_38_2
*1689 FILLER_38_24
*1690 FILLER_38_46
*1691 FILLER_38_60
*1692 FILLER_38_68
*1693 FILLER_38_90
*1694 FILLER_38_122
*1695 FILLER_38_144
*1696 FILLER_38_148
*1697 FILLER_38_153
*1698 FILLER_38_175
*1699 FILLER_38_193
*1700 FILLER_38_215
*1701 FILLER_38_237
*1702 FILLER_38_251
*1703 FILLER_38_257
*1704 FILLER_39_2
*1705 FILLER_39_24
*1706 FILLER_39_60
*1707 FILLER_39_66
*1708 FILLER_39_68
*1709 FILLER_39_75
*1710 FILLER_39_97
*1711 FILLER_39_125
*1712 FILLER_39_157
*1713 FILLER_39_192
*1714 FILLER_39_214
*1715 FILLER_39_236
*1716 FILLER_40_2
*1717 FILLER_40_24
*1718 FILLER_40_34
*1719 FILLER_40_52
*1720 FILLER_40_66
*1721 FILLER_40_79
*1722 FILLER_40_81
*1723 FILLER_40_88
*1724 FILLER_40_110
*1725 FILLER_40_116
*1726 FILLER_40_127
*1727 FILLER_40_141
*1728 FILLER_40_149
*1729 FILLER_40_157
*1730 FILLER_40_179
*1731 FILLER_40_201
*1732 FILLER_40_223
*1733 FILLER_40_245
*1734 FILLER_40_255
*1735 FILLER_40_257
*1736 FILLER_41_2
*1737 FILLER_41_57
*1738 FILLER_41_71
*1739 FILLER_41_79
*1740 FILLER_41_83
*1741 FILLER_41_93
*1742 FILLER_41_101
*1743 FILLER_41_111
*1744 FILLER_41_115
*1745 FILLER_41_117
*1746 FILLER_41_127
*1747 FILLER_41_139
*1748 FILLER_41_180
*1749 FILLER_41_202
*1750 FILLER_41_224
*1751 FILLER_41_246
*1752 FILLER_41_256
*1753 FILLER_42_2
*1754 FILLER_42_24
*1755 FILLER_42_46
*1756 FILLER_42_54
*1757 FILLER_42_60
*1758 FILLER_42_77
*1759 FILLER_42_92
*1760 FILLER_42_96
*1761 FILLER_42_103
*1762 FILLER_42_105
*1763 FILLER_42_138
*1764 FILLER_42_145
*1765 FILLER_42_151
*1766 FILLER_42_160
*1767 FILLER_42_177
*1768 FILLER_42_198
*1769 FILLER_42_202
*1770 FILLER_42_211
*1771 FILLER_42_233
*1772 FILLER_42_255
*1773 FILLER_42_257